SOLUTION_MASTER_SPECIES
#######################################################
#               essential definitions
#######################################################
Alkalinity CO3-2        1.0     61.0173         61.0173
E               e-      0       0               0
H               H+      -1.     1.008           1.008
H(0)            H2      0.0     1.008
H(1)            H+      -1.     1.008
O               H2O     0       16.00           16.00
O(-2)           H2O     0       16.00           16.00
O(0)            O2      0       16.00           16.00
#######################################################
Al              Al+3     0      26.9815         26.9815
As              H3AsO4  -1.0    74.9216         74.9216
As(+3)          H3AsO3   0.0    74.9216
As(+5)          H3AsO4  -1.0    74.9216
B               H3BO3    0.0    10.81           10.81
Ba              Ba+2     0      137.34          137.34
Br              Br-      0      79.904          79.904
C               CO3-2   2.0     61.0173         12.0111
C(+4)           CO3-2   2.0     61.0173
C(-4)          CH4     0.0     16.042
#DOM            DOM-2.8 0       0               0
Ca              Ca+2    0       40.08           40.08
Cd              Cd+2    0       112.399         112.399
Cl              Cl-     0       35.453          35.453
Cr              CrO4-2  1       51.996          51.996
Cr(2)           Cr+2    0       51.996  
Cr(3)          Cr(OH)2+ 1       51.996  
Cr(6)           CrO4-2  1       51.996  
Cu              Cu+2    0       63.546          63.546
Cu(1)           Cu+     0       63.546  
Cu(2)           Cu+2    0       63.546  
Fe              Fe+3    0.0     55.847          55.847
Fe(+2)          Fe+2    0.0     55.847
Fe(+3)          Fe+3    -2.0    55.847
K               K+      0       39.102          39.102
Mg              Mg+2    0       24.312          24.312
Mn              Mn+3    0.0     54.938          54.938
Mn(2)           Mn+2    0.0     54.938
Mn(3)           Mn+3    0.0     54.938
Mn(6)           MnO4-2  0.0     54.938
Mn(7)           MnO4-   0.0     54.938
N               NO3-    0.0     14.0067         14.0067
#N(-3)           NH4+    0.0     14.0067
N(0)             N2      0.0     14.0067
N(+3)           NO2-    0.0     14.0067
N(+5)           NO3-    0.0     14.0067
Amm		AmmH+	0.0	AmmH		17.0
Na              Na+     0       22.9898         22.9898
Ni              Ni+2    0       58.71           58.71
Pb              Pb+2    0       207.19          207.19
S               SO4-2   0.0     96.0616         32.064
S(-2)           HS-     1.0     32.064
S(6)            SO4-2   0.0     96.0616
Se              SeO4-2  0.0     78.96           78.96
Se(-2)          HSe-    0.0     78.96
Se(4)           SeO3-2  0.0     78.96
Se(6)           SeO4-2  0.0     78.96
Si		H4SiO4	0.0	SiO2		28.0843
Zn              Zn+2    0       65.37           65.37
Benzoate                Benzoate-       0       121.12  121.12
Para_acetate            Para_acetate-   0       134.14  134.14
Citrate                 Citrate-3       0       189.06  189.06
Nta                     Nta-3           0       188.06  188.06
Edta                    Edta-4          0       276     276
Propanoate              Propanoate-     0       73.032  73.032
Butanoate               Butanoate-      0       87.043  87.043
Formate                 Formate-        0       45.02   45.02
Acetate                 Acetate-        0       59.05   59.05
Salicylate              Salicylate-2    0       136.12  136.12
Orgc   Orgc 0.0  Orgc 30.0
Tmp Tmp         0.0  Tmp     1

SOLUTION_SPECIES
#######################################################
#             essential definitions
#######################################################
e- = e-
        log_k   0
        delta_h 0       kcal
H+ = H+
        log_k   0
        delta_h 0       kcal
        -gamma  9.0  0.0
H2O = H2O
        log_k   0
        delta_h 0       kcal
# numerical trick !!!
H2O + 0.01e- = H2O-0.01
log_k -9

2H2O = O2 + 4H+ + 4e- 
        log_k           -86.08
        delta_h 134.79 kcal
2 H+ + 2 e- = H2
        log_k           -3.15
        delta_h -1.759  kcal
CO3-2 = CO3-2
        log_k   0
        delta_h 0       kcal
        -gamma 5.4  0.0
#######################################################
Al+3 = Al+3
        log_k   0
        delta_h 0       kcal
        -gamma  9.0  0.0
H3AsO4 = H3AsO4
        log_k   0
        delta_h 0       kcal
H3AsO4 + 2e- + 2H+ = H3AsO3 + H2O
        log_k   19.444
        delta_h -30.015 kcal
H3BO3 = H3BO3
        log_k   0
        delta_h 0       kcal
Ba+2 = Ba+2
        log_k   0
        delta_h 0       kcal
        -gamma  5.0  0.0
Br- = Br-
        log_k   0
        delta_h 0       kcal
        -gamma  4.0  0.0
Ca+2 = Ca+2
        log_k   0
        delta_h 0       kcal
        -gamma  6.0  .165
Cd+2 = Cd+2
        log_k   0
        delta_h 0       kcal
Cl- = Cl-
        log_k   0
        delta_h 0       kcal
        -gamma  3.0  .015

Tmp = Tmp
        log_k   0
        delta_h 0       kcal

CrO4-2 = CrO4-2
        log_k   0
        delta_h 0       kcal
        -gamma  4.0  0.0
Cr(OH)2+ + 2H+ + e- = Cr+2 + 2H2O
        log_k   2.947
        delta_h 6.36    kcal
CrO4-2 + 6H+ + 3e- = Cr(OH)2+ + 2H2O
        log_k   67.376
        delta_h -103    kcal
Cu+2 = Cu+2
        log_k   0
        delta_h 0       kcal
        -gamma  2.5  0.0
Cu+2 + e- = Cu+
        log_k   2.72
        delta_h 1.65    kcal
        -gamma  2.5  0.0
Fe+3 = Fe+3
        log_k   0
        delta_h 0       kcal
        -gamma  9.0  0.0
Fe+3 + e- = Fe+2
        log_k   13.032
        delta_h -10     kcal
        -gamma  6.0  0.0
K+ = K+
        log_k   0
        delta_h 0       kcal
        -gamma  3.0  .015
Mg+2 = Mg+2
        log_k   0
        delta_h 0       kcal
        -gamma  6.5  .20
Mn+2 + 4H2O = MnO4- + 8H+ + 5e-
        log_k   -127.824
        delta_h 176.62  kcal
        -gamma  3.0   0
Mn+2 + 4H2O = MnO4-2 + 8H+ + 4e-
        log_k   -118.44
        delta_h 150.02  kcal
        -gamma  5.0   0
Mn+3 = Mn+3
        log_k   0
        delta_h 0       kcal
        -gamma  9.0  0.0
Mn+3 + e- = Mn+2
        log_k   25.507
        delta_h 25.76   kcal
        -gamma  6.0  0.0
NO3- = NO3-
        log_k   0
        delta_h 0       kcal
        -gamma  3.0  0.0
AmmH+ = AmmH+
	log_k	0.0
	-gamma	2.5	0.0
NO3- + 2H+ + 2e- = NO2- + H2O
        log_k   28.57
        delta_h -43.76  kcal
2 NO3- + 12 H+ + 10 e- = N2 + 6 H2O
	log_k	207.08
	delta_h -312.130	kcal
#NO3- + 10H+ + 8e- = NH4+ + 3H2O
#       log_k   119.077
#        delta_h -187.055        kcal
#       -gamma  2.5  0.0
#NO3- + 10H+ + 8e- = AmmH+ + 3H2O
#       log_k   119.077
#        delta_h -187.055        kcal
#       -gamma  2.5  0.0
Na+ = Na+
        log_k   0
        delta_h 0       kcal
        -gamma  4.0  .075
Ni+2 = Ni+2
        log_k   0
        delta_h 0       kcal
Pb+2 = Pb+2
        log_k   0
        delta_h 0       kcal
SO4-2 = SO4-2
        log_k   0
        delta_h 0       kcal
        -gamma  4.0  -.04
SO4-2 + 9H+ + 8e- = HS- + 4H2O
        log_k   33.66
        delta_h -60.14  kcal
        -gamma  3.5  0.0
SeO4-2 = SeO4-2
        log_k   0
        delta_h 0       kcal
        -gamma  4.0  0.0
HSeO3- + 6e- + 6H+ = HSe- + 3H2O
        log_k   35.38
        delta_h -78.17  kcal
SeO4-2 + 2e- + 3H+ = HSeO3- + H2O
        log_k   36.319
        delta_h -48.095 kcal
Zn+2 = Zn+2
        log_k   0
        delta_h 0       kcal
        -gamma  6.0  0.0
H4SiO4 = H4SiO4
	log_k	0.0
Benzoate- = Benzoate-
        log_k   0
        delta_h 0       kcal
Para_acetate- = Para_acetate-
        log_k   0
        delta_h 0       kcal
Citrate-3 = Citrate-3
        log_k   0
        delta_h 0       kcal
Nta-3 = Nta-3
        log_k   0
        delta_h 0       kcal
Edta-4 = Edta-4
        log_k   0
        delta_h 0       kcal
Propanoate- = Propanoate-
        log_k   0
        delta_h 0       kcal
Butanoate- = Butanoate-
        log_k   0
        delta_h 0       kcal
Formate- = Formate-
        log_k   0
        delta_h 0       kcal
Acetate- = Acetate-
        log_k   0
        delta_h 0       kcal
Salicylate-2 = Salicylate-2
        log_k   0
        delta_h 0       kcal
Orgc = Orgc
        log_k   0
        delta_h 0       kcal

SOLUTION_SPECIES

CO3-2 + 10 H+ + 8 e- = CH4 + 3 H2O
        log_k           41.071
        delta_h -61.039 kcal

H2O = OH- + H+
        log_k   -13.998
        delta_h 13.345  kcal
        -gamma  3.5     0
H3BO3 = H2BO3- + H+
        log_k   -9.24
        delta_h 3.224   kcal
        -gamma  2.5     0
        -analytical 24.3919    0.012078   -1343.9    -13.2258
#NH4+ = NH3 + H+
#        log_k   -9.252
#        delta_h 12.48   kcal
#        -analytical 0.6322     -0.001225  -2835.76
AmmH+ = Amm + H+
	log_k	-9.252
	delta_h 12.48	kcal
#NH4+ + SO4-2 = NH4SO4-
#        log_k   1.11
#        delta_h 0       kcal
#        -gamma  5       0
AmmH+ + SO4-2 = AmmHSO4-
        log_k   1.11
        delta_h 0       kcal
        -gamma  5       0

Mg+2 + H2O = MgOH+ + H+
        log_k   -11.79
        delta_h 15.935  kcal
        -gamma  6.5     0
        -analytical -3.53      0.00513    -2917.1
Mg+2 + CO3-2 = MgCO3
        log_k   2.98
        delta_h 2.022   kcal
        -analytical 0.991      0.00667
Mg+2 + CO3-2 + H+ = MgHCO3+
        log_k   11.4
        delta_h -2.43   kcal
        -gamma  4       0
# Minteq a_e has more constants than phreeqc, can not use     
#       -analytical_expression -4.179     0.012734   2902.39    0.0        2.29812E-5
Mg+2 + SO4-2 = MgSO4
        log_k   2.25
        delta_h 1.399   kcal
Ca+2 + H2O = CaOH+ + H+
        log_k   -12.598
        delta_h 14.535  kcal
        -gamma  6       0
Ca+2 + CO3-2 + H+ = CaHCO3+
        log_k   11.33
        delta_h 1.79    kcal
        -gamma  6       0
        -analytical -9.448     0.03709    2902.39
Ca+2 + CO3-2 = CaCO3
        log_k   3.15
        delta_h 4.03    kcal
        -analytical -27.393    0.05617    4114.0
Ca+2 + SO4-2 = CaSO4
        log_k   2.309
        delta_h 1.47    kcal
Na+ + CO3-2 = NaCO3-
        log_k   1.268
        delta_h 8.911   kcal
        -gamma  5.4     0
Na+ + CO3-2 + H+ = NaHCO3
        log_k   10.08
        delta_h 0       kcal
Na+ + SO4-2 = NaSO4-
        log_k   0.7
        delta_h 1.12    kcal
        -gamma  5.4     0
K+ + SO4-2 = KSO4-
        log_k   0.85
        delta_h 2.25    kcal
        -gamma  5.4     0
        -analytical 3.106      0.00       -673.6
Al+3 + H2O = AlOH+2 + H+
        log_k   -4.99
        delta_h 11.899  kcal
        -gamma  5.4     0
Al+3 + 2H2O = Al(OH)2+ + 2H+
        log_k   -10.1
        delta_h 0       kcal
        -gamma  5.4     0
Al+3 + 4H2O = Al(OH)4- + 4H+
        log_k   -23
        delta_h 44.06   kcal
        -gamma  4.5     0
Al+3 + SO4-2 = AlSO4+
        log_k   3.02
        delta_h 2.15    kcal
        -gamma  4.5     0
Al+3 + 2SO4-2 = Al(SO4)2-
        log_k   4.92
        delta_h 2.84    kcal
        -gamma  4.5     0
Al+3 + 3H2O = Al(OH)3 + 3H+
        log_k   -16
        delta_h 0       kcal
Fe+2 + H2O = FeOH+ + H+
        log_k   -9.5
        delta_h 13.199  kcal
        -gamma  5       0
Fe+2 + 3H2O = Fe(OH)3- + 3H+
        log_k   -31
        delta_h 30.3    kcal
        -gamma  5       0
Fe+2 + SO4-2 = FeSO4
        log_k   2.25
        delta_h 3.23    kcal
Fe+2 + 2H2O = Fe(OH)2 + 2H+
        log_k   -20.57
        delta_h 28.565  kcal
Fe+2 + 2HS- = Fe(HS)2
        log_k   8.95
        delta_h 0       kcal
Fe+2 + 3HS- = Fe(HS)3-
        log_k   10.987
        delta_h 0       kcal
Fe+3 + H2O = FeOH+2 + H+
        log_k   -2.19
        delta_h 10.399  kcal
        -gamma  5       0
Fe+3 + SO4-2 = FeSO4+
        log_k   3.92
        delta_h 3.91    kcal
        -gamma  5       0
Fe+3 + Cl- = FeCl+2
        log_k   1.48
        delta_h 5.6     kcal
        -gamma  5       0
Fe+3 + 2Cl- = FeCl2+
        log_k   2.13
        delta_h 0       kcal
        -gamma  5       0
Fe+3 + 3Cl- = FeCl3
        log_k   1.13
        delta_h 0       kcal
Fe+3 + 2H2O = Fe(OH)2+ + 2H+
        log_k   -5.67
        delta_h 0       kcal
        -gamma  5.4     0
Fe+3 + 3H2O = Fe(OH)3 + 3H+
        log_k   -13.6
        delta_h 0       kcal
Fe+3 + 4H2O = Fe(OH)4- + 4H+
        log_k   -21.6
        delta_h 0       kcal
        -gamma  5.4     0
Fe+3 + 2SO4-2 = Fe(SO4)2-
        log_k   5.42
        delta_h 4.6     kcal
2Fe+3 + 2H2O = Fe2(OH)2+4 + 2H+
        log_k   -2.95
        delta_h 13.5    kcal
3Fe+3 + 4H2O = Fe3(OH)4+5 + 4H+
        log_k   -6.3
        delta_h 14.3    kcal
Mn+2 + Cl- = MnCl+
        log_k   0.607
        delta_h 0       kcal
        -gamma  5       0
Mn+2 + 2Cl- = MnCl2
        log_k   0.041
        delta_h 0       kcal
Mn+2 + 3Cl- = MnCl3-
        log_k   -0.305
        delta_h 0       kcal
        -gamma  5       0
Mn+2 + H2O = MnOH+ + H+
        log_k   -10.59
        delta_h 14.399  kcal
        -gamma  5       0
Mn+2 + 3H2O = Mn(OH)3- + 3H+
        log_k   -34.8
        delta_h 0       kcal
        -gamma  5       0
Mn+2 + SO4-2 = MnSO4
        log_k   2.26
        delta_h 2.17    kcal
Mn+2 + 2NO3- = Mn(NO3)2
        log_k   0.6
        delta_h -0.396  kcal
Mn+2 + CO3-2 + H+ = MnHCO3+
        log_k   11.6
        delta_h 0       kcal
        -gamma  5       0
Ba+2 + H2O = BaOH+ + H+
        log_k   -13.358
        delta_h 15.095  kcal
        -gamma  5       0
#BaSO4               543
	Ba+2 + SO4-2 = BaSO4 
	log_k		2.7
#BaHCO3+             561
	Ba+2 + HCO3- = BaHCO3+
	log_k		0.982
	delta_h	5.56 kcal
	-analytical	-3.0938		0.013669	0.0	0.0	0.0
#BaCO3               562
	Ba+2 + CO3-2 = BaCO3 
	log_k		2.71
	delta_h	3.55 kcal
	-analytical	0.113	0.008721	0.0	0.0	0.0
H4SiO4 = H3SiO4- + H+
	log_k	-9.83
	delta_h 6.12	kcal
	-analytic	-302.3724	-0.050698	15669.69	108.18466	-1119669.0

H4SiO4 = H2SiO4-2 + 2 H+
	log_k	-23.0
	delta_h 17.6	kcal
	-analytic	-294.0184	-0.072650	11204.49	108.18466	-1119669.0

Cu+ + 2Cl- = CuCl2-
        log_k   5.5
        delta_h -0.42   kcal
        -gamma  4       0
Cu+ + 3Cl- = CuCl3-2
        log_k   5.7
        delta_h 0.26    kcal
        -gamma  5       0
Cu+ + 2HS- = Cu(S4)2-3 + 2H+ 
        log_k   3.39
        delta_h 0       kcal
        -gamma  23      0
        -no_check
        -mass_balance Cu(S(-2)4)2
Cu+ + 2HS- = CuS4S5-3 + 2H+ 
        log_k   2.66
        delta_h 0       kcal
        -gamma  25      0
        -no_check
        -mass_balance CuS(-2)4S(-2)5
Cu+2 + Acetate- = CuAcetate+
        log_k   2.22
        delta_h 0       kcal
Cu+2 + Salicylate-2 = CuSalicylate
        log_k   10.64
        delta_h 0       kcal
2Cu+2 + Salicylate-2 = Cu2Salicylate+2
        log_k   16.94
        delta_h 0       kcal
Cu+2 + CO3-2 = CuCO3
        log_k   6.73
        delta_h 0       kcal
Cu+2 + 2CO3-2 = Cu(CO3)2-2
        log_k   9.83
        delta_h 0       kcal
Cu+2 + Cl- = CuCl+
        log_k   0.43
        delta_h 8.65    kcal
        -gamma  4       0
Cu+2 + 2Cl- = CuCl2
        log_k   0.16
        delta_h 10.56   kcal
Cu+2 + 3Cl- = CuCl3-
        log_k   -2.29
        delta_h 13.69   kcal
        -gamma  4       0
Cu+2 + 4Cl- = CuCl4-2
        log_k   -4.59
        delta_h 7.78    kcal
        -gamma  5       0
Cu+2 + H2O = CuOH+ + H+
        log_k   -8
        delta_h 0       kcal
        -gamma  4       0
Cu+2 + 2H2O = Cu(OH)2 + 2H+
        log_k   -13.68
        delta_h 0       kcal
Cu+2 + 3H2O = Cu(OH)3- + 3H+
        log_k   -26.899
        delta_h 0       kcal
Cu+2 + 4H2O = Cu(OH)4-2 + 4H+
        log_k   -39.6
        delta_h 0       kcal
2Cu+2 + 2H2O = Cu2(OH)2+2 + 2H+
        log_k   -10.359
        delta_h 17.539  kcal
        -analytical 2.497      0.0        -3833.0
Cu+2 + SO4-2 = CuSO4
        log_k   2.31
        delta_h 1.22    kcal
Cu+2 + 3HS- = Cu(HS)3-
        log_k   25.899
        delta_h 0       kcal
Cu+2 + CO3-2 + H+ = CuHCO3+
        log_k   13
        delta_h 0       kcal
Zn+2 + Cl- = ZnCl+
        log_k   0.43
        delta_h 7.79    kcal
        -gamma  4       0
Zn+2 + 2Cl- = ZnCl2
        log_k   0.45
        delta_h 8.5     kcal
Zn+2 + 3Cl- = ZnCl3-
        log_k   0.5
        delta_h 9.56    kcal
        -gamma  4       0
Zn+2 + 4Cl- = ZnCl4-2
        log_k   0.199
        delta_h 10.96   kcal
        -gamma  5       0
Zn+2 + H2O = ZnOH+ + H+
        log_k   -8.96
        delta_h 13.399  kcal
Zn+2 + 2H2O = Zn(OH)2 + 2H+
        log_k   -16.899
        delta_h 0       kcal
Zn+2 + 3H2O = Zn(OH)3- + 3H+
        log_k   -28.399
        delta_h 0       kcal
Zn+2 + 4H2O = Zn(OH)4-2 + 4H+
        log_k   -41.199
        delta_h 0       kcal
Zn+2 + H2O + Cl- = ZnOHCl + H+
        log_k   -7.48
        delta_h 0       kcal
Zn+2 + 2HS- = Zn(HS)2
        log_k   14.94
        delta_h 0       kcal
Zn+2 + 3HS- = Zn(HS)3-
        log_k   16.1
        delta_h 0       kcal
Zn+2 + SO4-2 = ZnSO4
        log_k   2.37
        delta_h 1.36    kcal
Zn+2 + 2SO4-2 = Zn(SO4)2-2
        log_k   3.28
        delta_h 0       kcal
Zn+2 + Br- = ZnBr+
        log_k   -0.58
        delta_h 0       kcal
Zn+2 + 2Br- = ZnBr2
        log_k   -0.98
        delta_h 0       kcal
Zn+2 + CO3-2 + H+ = ZnHCO3+
        log_k   12.4
        delta_h 0       kcal
Zn+2 + CO3-2 = ZnCO3
        log_k   5.3
        delta_h 0       kcal
Zn+2 + 2CO3-2 = Zn(CO3)2-2
        log_k   9.63
        delta_h 0       kcal
Cd+2 + Cl- = CdCl+
        log_k   1.98
        delta_h 0.59    kcal
Cd+2 + 2Cl- = CdCl2
        log_k   2.6
        delta_h 1.24    kcal
Cd+2 + 3Cl- = CdCl3-
        log_k   2.399
        delta_h 3.9     kcal
Cd+2 + 3CO3-2 = Cd(CO3)3-4
        log_k   6.22
        delta_h 0       kcal
Cd+2 + H2O = CdOH+ + H+
        log_k   -10.08
        delta_h 13.1    kcal
Cd+2 + 2H2O = Cd(OH)2 + 2H+
        log_k   -20.35
        delta_h 0       kcal
Cd+2 + 3H2O = Cd(OH)3- + 3H+
        log_k   -33.3
        delta_h 0       kcal
Cd+2 + 4H2O = Cd(OH)4-2 + 4H+
        log_k   -47.35
        delta_h 0       kcal
2Cd+2 + H2O = Cd2OH+3 + H+
        log_k   -9.39
        delta_h 10.899  kcal
Cd+2 + H2O + Cl- = CdOHCl + H+
        log_k   -7.404
        delta_h 4.355   kcal
Cd+2 + NO3- = CdNO3+
        log_k   0.399
        delta_h -5.2    kcal
Cd+2 + SO4-2 = CdSO4
        log_k   2.46
        delta_h 1.08    kcal
Cd+2 + HS- = CdHS+
        log_k   10.17
        delta_h 0       kcal
Cd+2 + 2HS- = Cd(HS)2
        log_k   16.53
        delta_h 0       kcal
Cd+2 + 3HS- = Cd(HS)3-
        log_k   18.71
        delta_h 0       kcal
Cd+2 + 4HS- = Cd(HS)4-2
        log_k   20.9
        delta_h 0       kcal
Cd+2 + Br- = CdBr+
        log_k   2.17
        delta_h -0.81   kcal
Cd+2 + 2Br- = CdBr2
        log_k   2.899
        delta_h 0       kcal
Cd+2 + CO3-2 + H+ = CdHCO3+
        log_k   12.4
        delta_h 0       kcal
Cd+2 + CO3-2 = CdCO3
        log_k   5.399
        delta_h 0       kcal
Cd+2 + 2SO4-2 = Cd(SO4)2-2
        log_k   3.5
        delta_h 0       kcal
Pb+2 + Cl- = PbCl+
        log_k   1.6
        delta_h 4.38    kcal
Pb+2 + 2Cl- = PbCl2
        log_k   1.8
        delta_h 1.08    kcal
Pb+2 + 3Cl- = PbCl3-
        log_k   1.699
        delta_h 2.17    kcal
Pb+2 + 4Cl- = PbCl4-2
        log_k   1.38
        delta_h 3.53    kcal
Pb+2 + 2CO3-2 = Pb(CO3)2-2
        log_k   10.64
        delta_h 0       kcal
Pb+2 + H2O = PbOH+ + H+
        log_k   -7.71
        delta_h 0       kcal
Pb+2 + 2H2O = Pb(OH)2 + 2H+
        log_k   -17.12
        delta_h 0       kcal
Pb+2 + 3H2O = Pb(OH)3- + 3H+
        log_k   -28.06
        delta_h 0       kcal
2Pb+2 + H2O = Pb2OH+3 + H+
        log_k   -6.36
        delta_h 0       kcal
Pb+2 + NO3- = PbNO3+
        log_k   1.17
        delta_h 0       kcal
Pb+2 + SO4-2 = PbSO4
        log_k   2.75
        delta_h 0       kcal
Pb+2 + 2HS- = Pb(HS)2
        log_k   15.27
        delta_h 0       kcal
Pb+2 + 3HS- = Pb(HS)3-
        log_k   16.57
        delta_h 0       kcal
3Pb+2 + 4H2O = Pb3(OH)4+2 + 4H+
        log_k   -23.88
        delta_h 26.5    kcal
Pb+2 + Br- = PbBr+
        log_k   1.77
        delta_h 2.88    kcal
Pb+2 + 2Br- = PbBr2
        log_k   1.44
        delta_h 0       kcal
Pb+2 + CO3-2 = PbCO3
        log_k   7.24
        delta_h 0       kcal
Pb+2 + 4H2O = Pb(OH)4-2 + 4H+
        log_k   -39.699
        delta_h 0       kcal
Pb+2 + 2SO4-2 = Pb(SO4)2-2
        log_k   3.47
        delta_h 0       kcal
Pb+2 + CO3-2 + H+ = PbHCO3+
        log_k   13.2
        delta_h 0       kcal
Ni+2 + Br- = NiBr+
        log_k   0.5
        delta_h 0       kcal
Ni+2 + Cl- = NiCl+
        log_k   0.399
        delta_h 0       kcal
Ni+2 + H2O = NiOH+ + H+
        log_k   -9.86
        delta_h 12.42   kcal
Ni+2 + 2H2O = Ni(OH)2 + 2H+
        log_k   -19
        delta_h 0       kcal
Ni+2 + 3H2O = Ni(OH)3- + 3H+
        log_k   -30
        delta_h 0       kcal
Ni+2 + SO4-2 = NiSO4
        log_k   2.29
        delta_h 1.52    kcal
Ni+2 + 2Cl- = NiCl2
        log_k   0.96
        delta_h 0       kcal
Ni+2 + CO3-2 + H+ = NiHCO3+
        log_k   12.47
        delta_h 0       kcal
Ni+2 + CO3-2 = NiCO3
        log_k   6.87
        delta_h 0       kcal
Ni+2 + 2CO3-2 = Ni(CO3)2-2
        log_k   10.11
        delta_h 0       kcal
Ni+2 + 2SO4-2 = Ni(SO4)2-2
        log_k   1.02
        delta_h 0       kcal
Ni+2 + Acetate- = NiAcetate+
        log_k   1.43
        delta_h 0       kcal
Ni+2 + Salicylate-2 = NiSalicylate
        log_k   6.95
        delta_h 0       kcal
2Ni+2 + Salicylate-2 = Ni2Salicylate+2
        log_k   11.75
        delta_h 0       kcal
H3AsO3 = H2AsO3- + H+
        log_k   -9.228
        delta_h 6.56    kcal
H3AsO3 = HAsO3-2 + 2H+
        log_k   -21.33
        delta_h 14.199  kcal
H3AsO3 = AsO3-3 + 3H+
        log_k   -34.744
        delta_h 20.25   kcal
H3AsO3 + H+ = H4AsO3+
        log_k   -0.305
        delta_h 0       kcal
H3AsO4 = H2AsO4- + H+
        log_k   -2.243
        delta_h -1.69   kcal
H3AsO4 = HAsO4-2 + 2H+
        log_k   -9.001
        delta_h -0.92   kcal
H3AsO4 = AsO4-3 + 3H+
        log_k   -20.597
        delta_h 3.43    kcal
CO3-2 + H+ = HCO3-
        log_k   10.33
        delta_h -3.617  kcal
        -gamma  5.4     0
        -analytical -6.498     0.02379    2902.39
CO3-2 + 2H+ = H2CO3
        log_k   16.681
        delta_h -2.247  kcal
SO4-2 + H+ = HSO4-
        log_k   1.987
        delta_h 4.91    kcal
        -gamma  4.5     0
        -analytical -5.3505    0.0183412  557.2461
HS- + H+ = H2S
        log_k   6.994
        delta_h -5.3    kcal
        -analytical -11.17     0.02386    3279.0
HS- = S-2 + H+
        log_k   -12.918
        delta_h 12.1    kcal
        -gamma  5       0
HS- = S2-2 + H+ 
        log_k   -14.528
        delta_h 11.4    kcal
        -no_check
        -mass_balance S(-2)2
HS- = S3-2 + H+ 
        log_k   -13.282
        delta_h 10.4    kcal
        -no_check
        -mass_balance S(-2)3
HS- = S4-2 + H+ 
        log_k   -9.829
        delta_h 9.7     kcal
        -no_check
        -mass_balance S(-2)4
HS- = S5-2 + H+ 
        log_k   -9.595
        delta_h 9.3     kcal
        -no_check
        -mass_balance S(-2)5
HS- = S6-2 + H+ 
        log_k   -9.881
        delta_h 0       kcal
        -no_check
        -mass_balance S(-2)6
HSe- = Se-2 + H+
        log_k   -14.9529
        delta_h 11.5    kcal
HSe- + H+ = H2Se
        log_k   3.8115
        delta_h 0.8     kcal
HSe- + Mn+2 = MnSe + H+
        log_k   -6.7435
        delta_h 0       kcal
HSeO3- = SeO3-2 + H+
        log_k   -8.48
        delta_h 1.28    kcal
HSeO3- + H+ = H2SeO3
        log_k   2.65
        delta_h 1.69    kcal
HSeO3- + Fe+3 = FeHSeO3+2
        log_k   3.61
        delta_h 0       kcal
2HSeO3- + Cd+2 = Cd(SeO3)2-2 + 2H+
        log_k   -11.189
        delta_h 0       kcal
SeO4-2 + H+ = HSeO4-
        log_k   1.9058
        delta_h 4.2     kcal
SeO4-2 + Mn+2 = MnSeO4
        log_k   2.4188
        delta_h 3.46    kcal
SeO4-2 + Ni+2 = NiSeO4
        log_k   2.6387
        delta_h 3.5     kcal
SeO4-2 + Cd+2 = CdSeO4
        log_k   2.2415
        delta_h 0       kcal
SeO4-2 + Zn+2 = ZnSeO4
        log_k   2.2019
        delta_h 0       kcal
2SeO4-2 + Zn+2 = Zn(SeO4)2-2
        log_k   -0.0704
        delta_h 0       kcal
Cr(OH)2+ + 2H+ = Cr+3 + 2H2O
        log_k   9.62
        delta_h -20.14  kcal
Cr(OH)2+ + H+ = Cr(OH)+2 + H2O
        log_k   5.62
        delta_h 0       kcal
Cr(OH)2+ + H2O = Cr(OH)3 + H+
        log_k   -7.13
        delta_h 0       kcal
Cr(OH)2+ + 2H2O = Cr(OH)4- + 2H+
        log_k   -18.15
        delta_h 0       kcal
Cr(OH)2+ = CrO2- + 2H+
        log_k   -17.7456
        delta_h 0       kcal
Cr(OH)2+ + Br- + 2H+ = CrBr+2 + 2H2O
        log_k   7.5519
        delta_h -11.211 kcal
Cr(OH)2+ + Cl- + 2H+ = CrCl+2 + 2H2O
        log_k   9.3683
        delta_h -13.847 kcal
Cr(OH)2+ + 2Cl- + 2H+ = CrCl2+ + 2H2O
        log_k   8.658
        delta_h -9.374  kcal
Cr(OH)2+ + 2Cl- + H+ = CrOHCl2 + H2O
        log_k   2.9627
        delta_h 0       kcal
#Cr(OH)2+ + 6NH4+ = Cr(NH3)6+3 + 4H+ + 2H2O
 #       log_k   -32.5709
#        delta_h 0       kcal
Cr(OH)2+ + 6AmmH+ = Cr(Amm)6+3 + 4H+ + 2H2O
        log_k   -32.5709
        delta_h 0       kcal
#Cr(OH)2+ + 5NH4+ = Cr(NH3)5OH+2 + 4H+ + H2O
#        log_k   -30.2759
#        delta_h 0       kcal
Cr(OH)2+ + 5AmmH+ = Cr(Amm)5OH+2 + 4H+ + H2O
        log_k   -30.2759
        delta_h 0       kcal
#Cr(OH)2+ + 4NH4+ = Cr(NH3)4(OH)2+ + 4H+
#        log_k   -29.8574
#        delta_h 0       kcal
Cr(OH)2+ + 4AmmH+ = Cr(Amm)4(OH)2+ + 4H+
        log_k   -29.8574
        delta_h 0       kcal
#  Don't know difference with previous species
#  MINTEQ had "CCrNH3)4OH2" for one and "TCrNH3)4OH2"
#  Equations were the same.
#  Cis and Trans??
#Cr(OH)2+ + 4NH4+ = Cr(NH3)4(OH)2+ + 4H+
#       log_k   -30.5537
#       delta_h 0       kcal
#Cr(OH)2+ + 6NH4+ + Cl- = Cr(NH3)6Cl+2 + 2H2O + 4H+
#        log_k   -31.7932
#        delta_h 0       kcal
Cr(OH)2+ + 6AmmH+ + Cl- = Cr(Amm)6Cl+2 + 2H2O + 4H+
        log_k   -31.7932
        delta_h 0       kcal
#Cr(OH)2+ + 6NH4+ + Br- = Cr(NH3)6Br+2 + 4H+ + 2H2O
#        log_k   -31.887
#        delta_h 0       kcal
Cr(OH)2+ + 6AmmH+ + Br- = Cr(Amm)6Br+2 + 4H+ + 2H2O
        log_k   -31.887
        delta_h 0       kcal
Cr(OH)2+ + NO3- + 2H+ = CrNO3+2 + 2H2O
        log_k   8.2094
        delta_h -15.64  kcal
Cr(OH)2+ + SO4-2 + 2H+ = CrSO4+ + 2H2O
        log_k   10.9654
        delta_h -12.62  kcal
Cr(OH)2+ + SO4-2 + H+ = CrOHSO4 + H2O
        log_k   8.2754
        delta_h 0       kcal
2Cr(OH)2+ + 2SO4-2 + 2H+ = Cr2(OH)2(SO4)2 + 2H2O
        log_k   14.5278
        delta_h 0       kcal
#   Not sure about these two species
#   One was "Cr2OH2SO4)S" other was "Cr2OH2SO42"
#   Equation was the same
#2Cr(OH)2+ + 2SO4-2 + 2H+ = Cr2(OH)2(SO4)2 + 2H2O
#       log_k   17.9288
#       delta_h 0       kcal
2Cr(OH)2+ + SO4-2 + 2H+ = Cr2(OH)2SO4+2 + 2H2O
        log_k   16.155
        delta_h 0       kcal
CrO4-2 + H+ = HCrO4-
        log_k   6.5089
        delta_h 0.9     kcal
CrO4-2 + 2H+ = H2CrO4
        log_k   5.6513
        delta_h 0       kcal
2CrO4-2 + 2H+ = Cr2O7-2 + H2O
        log_k   14.5571
        delta_h -2.995  kcal
CrO4-2 + Cl- + 2H+ = CrO3Cl- + H2O
        log_k   7.3086
        delta_h 0       kcal
CrO4-2 + SO4-2 + 2H+ = CrO3SO4-2 + H2O
        log_k   8.9937
        delta_h 0       kcal
CrO4-2 + Na+ = NaCrO4-
        log_k   0.6963
        delta_h 0       kcal
CrO4-2 + K+ = KCrO4-
        log_k   0.799
        delta_h 0       kcal
Acetate- + H+ = HAcetate
        log_k   4.76
        delta_h 0       kcal
        -gamma  0       0.06
Cr(OH)2+ + Acetate- + 2H+ = CrAcetate+2 + 2H2O
        log_k   14.25
        delta_h 0       kcal
Cr(OH)2+ + 2Acetate- + 2H+ = CrAcetate2+ + 2H2O
        log_k   16.68
        delta_h 0       kcal
Cr(OH)2+ + 3Acetate- + 2H+ = CrAcetate3 + 2H2O
        log_k   19.2
        delta_h 0       kcal
Cd+2 + Butanoate- = CdButanoate+
        log_k   1.25
        delta_h 0       kcal
Cd+2 + Citrate-3 = CdCitrate-
        log_k   5.3
        delta_h 0       kcal
Cd+2 + Citrate-3 + 2H+ = CdH2Citrate+
        log_k   2.05
        delta_h 0       kcal
Cd+2 + Citrate-3 + H+ = CdHCitrate
        log_k   3.37
        delta_h 0       kcal
Cd+2 + 2Citrate-3 = CdCitrate2-4
        log_k   5.34
        delta_h 0       kcal
Cd+2 + Edta-4 + H+ = CdHEdta-
        log_k   2.9
        delta_h 0       kcal
Cd+2 + 2Acetate- = CdAcetate2
        log_k   3.15
        delta_h 0       kcal
Cd+2 + 3Acetate- = CdAcetate3-
        log_k   2.17
        delta_h 0       kcal
Cd+2 + 4Acetate- = CdAcetate4-2
        log_k   2.04
        delta_h 0       kcal
Cd+2 + Propanoate- = CdPropanoate+
        log_k   1.19
        delta_h 0       kcal
Cd+2 + 2Propanoate- = CdPropanoate2
        log_k   1.86
        delta_h 0       kcal
Cd+2 + 3Propanoate- = CdPropanoate3-
        log_k   2.345
        delta_h 0       kcal
Cd+2 + 4Propanoate- = CdPropanoate4-2
        log_k   1.98
        delta_h 0       kcal
Cd+2 + 2Butanoate- = CdButanoate2
        log_k   1.98
        delta_h 0       kcal
Cd+2 + 3Butanoate- = CdButanoate3-
        log_k   2.34
        delta_h 0       kcal
Cd+2 + 4Butanoate- = CdButanoate4-2
        log_k   1.98
        delta_h 0       kcal
Benzoate- + H+ = HBenzoate
        log_k   4.2
        delta_h 0       kcal
Para_acetate- + 2H+ = H2Para_acetate+
        log_k   4.31
        delta_h 0       kcal
Propanoate- + Fe+3 = FePropanoate+2
        log_k   3.4
        delta_h 0       kcal
Butanoate- + Fe+3 = FeButanoate+2
        log_k   5.56
        delta_h 0       kcal
Benzoate- + Cu+2 = CuBenzoate+
        log_k   2.1
        delta_h 0       kcal
Para_acetate- + Cu+2 = CuPara_acetate+
        log_k   1.97
        delta_h 0       kcal
Benzoate- + Cd+2 = CdBenzoate+
        log_k   1.9
        delta_h 0       kcal
2Benzoate- + Cd+2 = CdBenzoate2
        log_k   1.65
        delta_h 0       kcal
Para_acetate- + Zn+2 = ZnPara_acetate+
        log_k   1.67
        delta_h 0       kcal
Para_acetate- + Cd+2 = CdPara_acetate+
        log_k   1.15
        delta_h 0       kcal
2Para_acetate- + Cd+2 = CdPara_acetate2
        log_k   1.92